LAMMPS (2 Aug 2023 - Update 2)
# 3d Lennard-Jones gas

units           lj
atom_style      atomic
read_data       ./DATA/lj.init
Reading data file ...
  orthogonal box = (0 0 0) to (40 40 40)
  reading atoms ...
  512 atoms
include         setup.in
variable        seed world 87287
variable        out_freq equal 500

variable	    press equal 1.0
variable	    pdamp equal 1000.0

variable	    temp1 equal 1.0
variable	    temp2 equal 0.5
variable	    tdamp equal 100.0

variable        epsilon equal 1.0
variable        sigma equal 0.89
variable        rcut equal 6.0

timestep        0.01

thermo          1000
thermo_style    custom step temp pe press

neighbor        0.3 bin
neigh_modify    delay 0 every 20 check no

pair_style      lj/cut 6
pair_coeff      1 1 1 0.89 6

# Randomize

velocity        all create 1.0 87287 dist gaussian

fix             1 all nvt temp 1 0.5 100

dump            myDump all atom 1000 ./DATA/randomize

run             5000
Generated 0 of 0 mixed pair_coeff terms from geometric mixing rule
Step          Temp          PotEng         Press
0   1             -0.00038166949  0.0079782685
Loop time of 0.150804 on 1 procs for 5000 steps with 512 atoms

minimize        1.0e-2 1.0e-3 100 1000
Generated 0 of 0 mixed pair_coeff terms from geometric mixing rule
Step          Temp          PotEng         Press
5000   0.97169835    -0.045895141    0.0073701585
Loop time of 0.00219975 on 1 procs for 15 steps with 512 atoms

Minimization stats:
  Stopping criterion = energy tolerance
  Energy initial, next-to-last, final =
  Force two-norm initial, final = 21.448845 16.058102
  Force max component initial, final = 6.0204474 5.5070653
  Final line search alpha, max atom move = 0.0047193306 0.025989662
  Iterations, force evaluations = 15 40

undump          myDump

unfix           1

# Equilibriate

fix             1 all nve
fix             2 all temp/csvr 0.5 0.5 100 87287
fix             3 all plumed plumedfile plumed_biased.dat outfile plumed.log

dump            myDump all atom 10000 ./DATA/equilibriate

reset_timestep  0

run             1000000
Generated 0 of 0 mixed pair_coeff terms from geometric mixing rule
Step          Temp          PotEng         Press
0   0.97169835    -0.092138241    0.0076629479
Averages over the last 501 of 1001 rows, steps 500000 to 1000000:
Temp PotEng Press
0.536507 -2.07283 0.00181026
Loop time of 923.361 on 1 procs for 1000000 steps with 512 atoms
