LAMMPS (2 Aug 2023 - Update 2)
# 3d Lennard-Jones gas

units           lj
atom_style      atomic
read_restart    ./DATA/restart.500000
Reading restart file ...
  restart file = 2 Aug 2023, LAMMPS = 2 Aug 2023
  restoring atom style atomic from restart
  orthogonal box = (0 0 0) to (40 40 40)
  restoring pair style lj/cut from restart
  512 atoms
  read_restart CPU = 0.000 seconds
include         setup.in
variable        seed world 87287
variable        out_freq equal 500

variable	    press equal 1.0
variable	    pdamp equal 1000.0

variable	    temp1 equal 1.0
variable	    temp2 equal 0.5
variable	    tdamp equal 100.0

variable        epsilon equal 1.0
variable        sigma equal 0.89
variable        rcut equal 6.0

timestep        0.01

thermo          1000
thermo_style    custom step temp pe press

neighbor        0.3 bin
neigh_modify    delay 0 every 20 check no

pair_style      lj/cut 6
pair_coeff      1 1 1 0.89 6

# Equilibriate

fix             1 all nve
fix             2 all temp/csvr 0.5 0.5 100 87287
  fix style: temp/csvr, fix ID: 2
fix             3 all plumed plumedfile plumed_restart.dat outfile plumed.log

dump            myDump all atom 10000 ./DATA/equilibriate2

reset_timestep  500000

run             500000
Generated 0 of 0 mixed pair_coeff terms from geometric mixing rule
All restart file global fix info was re-assigned
Step          Temp          PotEng         Press
500000   0.53321262    -0.90680704     0.0021702445
Averages over the last 251 of 501 rows, steps 750000 to 1000000:
Temp PotEng Press
0.54548 -3.12306 0.00101115
Loop time of 778.501 on 1 procs for 500000 steps with 512 atoms
