LAMMPS (2 Aug 2023 - Update 2)
# 3d OPP

units           lj
atom_style      atomic
read_data       ./DATA/opp.init
Reading data file ...
  orthogonal box = (-12 -12 -12) to (12 12 12)
  reading atoms ...
  4096 atoms
include         setup.in
variable        seed world 87287
variable        out_freq1 equal 10000
variable        out_freq2 equal 10000

variable	    press equal 1.5
variable	    pdamp equal 1000.0

variable	    temp1 equal 5.0
variable	    temp2 equal 0.5
variable	    tdamp equal 100.0

timestep        0.002

thermo          10000
thermo_style    custom step temp pe press

neighbor        0.3 bin
neigh_modify    delay 0 every 20 check no

pair_style      table linear 2000
pair_coeff      1 1 pp10.table OPP_FE
Reading pair table potential file pp10.table with DATE: 2024-01-10

pair_write      1 1 132 r 0.3 2.92 pp10.test OPP_FE
Appending to table file pp10.test with DATE: 2024-01-29
Generated 0 of 0 mixed pair_coeff terms from geometric mixing rule

# Randomize

velocity        all create 5 87287 dist gaussian

fix             1 all nvt temp 5 5 100

dump            myDump all atom 10000 ./DATA/randomize

run             100000
Generated 0 of 0 mixed pair_coeff terms from geometric mixing rule
Step          Temp          PotEng         Press
0   5              1.9980368      1.1664174
Averages over the last 6 of 11 rows, steps 50000 to 100000:
Temp PotEng Press
5.44325 0.6603 2.44591
Loop time of 90.448 on 1 procs for 100000 steps with 4096 atoms

minimize        1.0e-2 1.0e-3 100 1000
Generated 0 of 0 mixed pair_coeff terms from geometric mixing rule
Step          Temp          PotEng         Press
100000   5.2696529      0.64920514     2.4369763
Loop time of 0.0573848 on 1 procs for 22 steps with 4096 atoms

Minimization stats:
  Stopping criterion = energy tolerance
  Energy initial, next-to-last, final =
  Force two-norm initial, final = 2434.3499 209.54556
  Force max component initial, final = 178.29153 43.756997
  Final line search alpha, max atom move = 0.0025754109 0.11269225
  Iterations, force evaluations = 22 26

undump          myDump

unfix           1

# Equilibriate

fix             1 all npt temp 5 0.5 100 iso 1.5 1.5 1000

dump            myDump all atom 10000 ./DATA/equilibriate

reset_timestep  0

restart         100000 ./DATA/restart

run             100000
Generated 0 of 0 mixed pair_coeff terms from geometric mixing rule
Step          Temp          PotEng         Press
0   5.2696529     -2.2999274      1.8910171
Averages over the last 6 of 11 rows, steps 50000 to 100000:
Temp PotEng Press
3.39101 0.146603 1.55067
Loop time of 94.8099 on 1 procs for 100000 steps with 4096 atoms
